/*--------------------------------*- C++ -*----------------------------------*\ 
| =========                 |                                                 | 
| \\      /  F ield         | OpenFOAM: The Open Source CFD Toolbox           | 
|  \\    /   O peration     | Version:  1712                                 | 
|   \\  /    A nd           | Web:      www.OpenFOAM.com                      | 
|    \\/     M anipulation  |                                                 | 
\*---------------------------------------------------------------------------*/ 
FoamFile                                                                        
{                                                                               
    version     2.0;                                                            
    format      ascii;                                                          
    class       dictionary;                                                     
    object      blockMeshDict;                                                  
}                                                                               
// * * * * * * * * * * * * * * * * * * * * * * * * * * * * * * * * * * * * * // 

convertToMeters 1.000000; 

//stretch ratio=1.200000,dx_min=0.070000
// nx1= 63, ny=13, nz=14
vertices 
( 
    (-8.750000 0.000000 -2.500000)
    (3.750000 0.000000 -2.500000)
    (3.750000 2.500000 -2.500000)
    (-8.750000 2.500000 -2.500000)
    (-8.750000 0.000000 0.099750)
    (3.750000 0.000000 0.099750)
    (3.750000 2.500000 0.099750)
    (-8.750000 2.500000 0.099750)
); 

blocks 
( 
hex (0 1 2 3 4 5 6 7)   (63 13 14) 
simpleGrading 
( 
       (     
             (7.500000 17.000000 0.053503)
             (2.500000 35.000000 1.000000)
             (2.500000 11.000000 6.785714)
       )     
       (     
             (0.250000 3.000000 1.000000)
             (2.250000 10.000000 6.190476)
       )     
       (     
             (2.344000 11.000000 0.155902)
             (0.255750 3.000000 1.000000)
       )     
) 
); 

edges 
( 
); 

boundary 
( 
atmosphere 
        { 
            type patch;
            faces 
            ( 
              (4 5 6 7) 
            );
        } 

inlet 
        { 
            type patch;
            faces 
            ( 
              (1 2 6 5) 
            );
        } 

outlet 
        { 
            type patch;
            faces 
            ( 
              (0 4 7 3) 
            );
        } 

bottom 
        { 
            type symmetryPlane;
            faces 
            ( 
              (0 3 2 1) 
            );
        } 

side 
        { 
            type symmetryPlane;
            faces 
            ( 
              (0 1 5 4) 
            );
        } 

midPlane 
        { 
            type symmetryPlane;
            faces 
            ( 
              (3 7 6 2) 
            );
        } 

 );
 
mergePatchPairs 
( 
); 
 
// ************************************************************************* // 
