/*--------------------------------*- C++ -*----------------------------------*\ 
| =========                 |                                                 | 
| \\      /  F ield         | OpenFOAM: The Open Source CFD Toolbox           | 
|  \\    /   O peration     | Version:  3.0.x                                 | 
|   \\  /    A nd           | Web:      www.OpenFOAM.com                      | 
|    \\/     M anipulation  |                                                 | 
\*---------------------------------------------------------------------------*/ 
FoamFile                                                                        
{                                                                               
    version     2.0;                                                            
    format      ascii;                                                          
    class       dictionary;                                                     
    object      blockMeshDict;                                                  
}                                                                               
// * * * * * * * * * * * * * * * * * * * * * * * * * * * * * * * * * * * * * // 

convertToMeters 1.000000; 

// nx= 266,ny=264, nz=52, n_total=1571648
// dy-min=0.005000,dz_min=0.100000
vertices 
( 
    (0.500000 0.500000 -4.000000)
    (0.500000 -0.500000 -4.000000)
    (-0.500000 -0.500000 -4.000000)
    (-0.500000 0.500000 -4.000000)
    (9.000000 10.000000 -4.000000)
    (9.000000 -10.000000 -4.000000)
    (-17.000000 -10.000000 -4.000000)
    (-17.000000 10.000000 -4.000000)
    (-0.500000 10.000000 -4.000000)
    (0.500000 10.000000 -4.000000)
    (9.000000 0.500000 -4.000000)
    (9.000000 -0.500000 -4.000000)
    (0.500000 -10.000000 -4.000000)
    (-0.500000 -10.000000 -4.000000)
    (-17.000000 -0.500000 -4.000000)
    (-17.000000 0.500000 -4.000000)
    (0.500000 0.500000 2.000000)
    (0.500000 -0.500000 2.000000)
    (-0.500000 -0.500000 2.000000)
    (-0.500000 0.500000 2.000000)
    (9.000000 10.000000 2.000000)
    (9.000000 -10.000000 2.000000)
    (-17.000000 -10.000000 2.000000)
    (-17.000000 10.000000 2.000000)
    (-0.500000 10.000000 2.000000)
    (0.500000 10.000000 2.000000)
    (9.000000 0.500000 2.000000)
    (9.000000 -0.500000 2.000000)
    (0.500000 -10.000000 2.000000)
    (-0.500000 -10.000000 2.000000)
    (-17.000000 -0.500000 2.000000)
    (-17.000000 0.500000 2.000000)
); 

blocks 
( 
hex ( 15 3 8 7  31 19 24 23)     (35 32 36) simpleGrading (0.001815 317.500000 ((3.00 10.0 0.17)
(2.00 20.0 1.00)
(1.00 6.0 2.50)
)) 
hex ( 14  2 3 15   30 18 19 31)  (35 200 36) simpleGrading (0.001815 1.000000 ((3.00 10.0 0.17)
(2.00 20.0 1.00)
(1.00 6.0 2.50)
)) 
hex ( 6 13 2 14   22 29 18 30)   (35 32 36) simpleGrading (0.001815 0.003150 ((3.00 10.0 0.17)
(2.00 20.0 1.00)
(1.00 6.0 2.50)
)) 
hex ( 13 12  1 2  29 28 17 18 )  (200 32 36) simpleGrading (1.000000 0.003150 ((3.00 10.0 0.17)
(2.00 20.0 1.00)
(1.00 6.0 2.50)
)) 
hex (  12 5 11 1   28 21 27 17)  (31 32 36) simpleGrading (284.166667 0.003150 ((3.00 10.0 0.17)
(2.00 20.0 1.00)
(1.00 6.0 2.50)
)) 
hex ( 1 11 10  0   17 27 26 16)  (31 200 36) simpleGrading (284.166667 1.000000 ((3.00 10.0 0.17)
(2.00 20.0 1.00)
(1.00 6.0 2.50)
)) 
hex ( 0 10 4 9    16 26 20 25 )  (31 32 36) simpleGrading (284.166667 317.500000 ((3.00 10.0 0.17)
(2.00 20.0 1.00)
(1.00 6.0 2.50)
)) 
hex ( 3 0 9 8     19 16 25 24)  (200 32 36) simpleGrading  (1.000000 317.500000 ((3.00 10.0 0.17)
(2.00 20.0 1.00)
(1.00 6.0 2.50)
)) 
); 

edges 
( 
); 

patches 
( 
patch outlet 
        ( 
            (7  15 31 23) 
            (14 15 30 31) 
            (14  6 22 30) 
        ) 

patch front 
        ( 
            (4 9 25 20) 
            (9 8 24 25) 
            (8 7 23 24) 
        ) 

patch back 
        ( 
            (5  12 28 21)  
            (12 13 29 28)  
            (13 6  22 29)  
        ) 

patch inlet 
        ( 
            (4  10 26 20) 
            (10 11 27 26) 
            (11 5  21 27) 
        ) 

wall cylinder 
        ( 
            (0 1 17 16) 
            (1 2 18 17) 
            (2 3 19 18) 
            (3 0 16 19) 
        ) 

patch bottom 
        ( 
          (15 3 8 7) 
          (14 2 3 15)
          (6 13 2 14)
          (13 12 1 2)
          (12 5 11 1)
          (1 11 10 0)
          (0 10 4 9)
           (3 0 9 8) 
        ) 

patch atmosphere 
        ( 
     (31 19 24 23)
               (30 18 19 31)
               (22 29 18 30)
               (29 28 17 18)
               (28 21 27 17)
               (17 27 26 16)
               (16 26 20 25)
               (19 16 25 24)
      
        ) 

); 
 
mergePatchPairs 
( 
); 
 
// ************************************************************************* // 
