/*--------------------------------*- C++ -*----------------------------------*\ 
| =========                 |                                                 | 
| \\      /  F ield         | OpenFOAM: The Open Source CFD Toolbox           | 
|  \\    /   O peration     | Version:  3.0.x                                 | 
|   \\  /    A nd           | Web:      www.OpenFOAM.com                      | 
|    \\/     M anipulation  |                                                 | 
\*---------------------------------------------------------------------------*/ 
FoamFile                                                                        
{                                                                               
    version     2.0;                                                            
    format      ascii;                                                          
    class       dictionary;                                                     
    object      blockMeshDict;                                                  
}                                                                               
// * * * * * * * * * * * * * * * * * * * * * * * * * * * * * * * * * * * * * // 

convertToMeters 1.000000; 

vertices 
( 
    (-7.950848 0.500000 0.000000)
    (0.049152 0.500000 8.000000)
    (0.750000 0.500000 8.000000)
    (16.000000 0.500000 8.000000)
    (-0.250000 0.500000 0.000000)
    (0.049152 0.500000 0.060007)
    (0.049152 0.500000 -0.060007)
    (0.750000 0.500000 -0.000000)
    (16.000000 0.500000 -0.000000)
    (0.049152 0.500000 -8.000000)
    (0.750000 0.500000 -8.000000)
    (16.000000 0.500000 -8.000000)
    (-7.950848 -0.500000 0.000000)
    (0.049152 -0.500000 8.000000)
    (0.750000 -0.500000 8.000000)
    (16.000000 -0.500000 8.000000)
    (-0.250000 -0.500000 0.000000)
    (0.049152 -0.500000 0.060007)
    (0.049152 -0.500000 -0.060007)
    (0.750000 -0.500000 -0.000000)
    (16.000000 -0.500000 -0.000000)
    (0.049152 -0.500000 -8.000000)
    (0.750000 -0.500000 -8.000000)
    (16.000000 -0.500000 -8.000000)
); 

blocks 
( 
hex (4 5 1 0 16 17 13 12)  (7 10 1) edgeGrading (1 0.200000 0.200000 1 50.000000 50.000000 50.000000 50.000000 1 1 1 1) 
hex (5 7 2 1 17 19 14 13)  (18 10 1) simpleGrading (1 50.000000 1) 
hex (7 8 3 2 19 20 15 14)  (15 10 1) simpleGrading (10.000000 50.000000 1) 
hex (16 18 21 12 4 6 9 0)  (7 10 1) edgeGrading (1 0.200000 0.200000 1 50.000000 50.000000 50.000000 50.000000 1 1 1 1) 
hex (18 19 22 21 6 7 10 9) (18 10 1) simpleGrading (1 50.000000 1) 
hex (19 20 23 22 7 8 11 10) (15 10 1) simpleGrading (10.000000 50.000000 1) 
); 

edges 
( 
    spline 4 5 
        ( 
            (-0.243181 0.500000 0.014185) 
            (-0.222909 0.500000 0.027121) 
            (-0.189737 0.500000 0.038445) 
            (-0.144570 0.500000 0.047719) 
            (-0.088641 0.500000 0.054541) 
            (-0.023474 0.500000 0.058654) 
        ) 
    spline 5 7 
        ( 
            (0.127257 0.500000 0.058770)
            (0.208710 0.500000 0.055295)
            (0.291290 0.500000 0.050047)
            (0.372743 0.500000 0.043533)
            (0.450848 0.500000 0.036253)
            (0.523474 0.500000 0.028672)
            (0.588641 0.500000 0.021228)
            (0.644570 0.500000 0.014344)
            (0.689737 0.500000 0.008430)
            (0.722909 0.500000 0.003870)
            (0.743181 0.500000 0.000987)
        ) 
    spline 4 6 
        ( 
            (-0.243181 0.500000 -0.014185)
            (-0.222909 0.500000 -0.027121)
            (-0.189737 0.500000 -0.038445)
            (-0.144570 0.500000 -0.047719)
            (-0.088641 0.500000 -0.054541)
            (-0.023474 0.500000 -0.058654)
        ) 
    spline 6 7 
        ( 
            (0.127257 0.500000 -0.058770)
            (0.208710 0.500000 -0.055295)
            (0.291290 0.500000 -0.050047)
            (0.372743 0.500000 -0.043533)
            (0.450848 0.500000 -0.036253)
            (0.523474 0.500000 -0.028672)
            (0.588641 0.500000 -0.021228)
            (0.644570 0.500000 -0.014344)
            (0.689737 0.500000 -0.008430)
            (0.722909 0.500000 -0.003870)
            (0.743181 0.500000 -0.000987)
        ) 
    spline 16 17 
        ( 
            (-0.243181 -0.500000 0.014185)
            (-0.222909 -0.500000 0.027121)
            (-0.189737 -0.500000 0.038445)
            (-0.144570 -0.500000 0.047719)
            (-0.088641 -0.500000 0.054541)
            (-0.023474 -0.500000 0.058654)
        ) 
    spline 17 19 
        ( 
            (0.127257 -0.500000 0.058770)
            (0.208710 -0.500000 0.055295)
            (0.291290 -0.500000 0.050047)
            (0.372743 -0.500000 0.043533)
            (0.450848 -0.500000 0.036253)
            (0.523474 -0.500000 0.028672)
            (0.588641 -0.500000 0.021228)
            (0.644570 -0.500000 0.014344)
            (0.689737 -0.500000 0.008430)
            (0.722909 -0.500000 0.003870)
            (0.743181 -0.500000 0.000987)
        ) 
    spline 16 18 
        ( 
            (-0.243181 -0.500000 -0.014185)
            (-0.222909 -0.500000 -0.027121)
            (-0.189737 -0.500000 -0.038445)
            (-0.144570 -0.500000 -0.047719)
            (-0.088641 -0.500000 -0.054541)
            (-0.023474 -0.500000 -0.058654)
        ) 
    spline 18 19 
        ( 
            (0.127257 -0.500000 -0.058770)
            (0.208710 -0.500000 -0.055295)
            (0.291290 -0.500000 -0.050047)
            (0.372743 -0.500000 -0.043533)
            (0.450848 -0.500000 -0.036253)
            (0.523474 -0.500000 -0.028672)
            (0.588641 -0.500000 -0.021228)
            (0.644570 -0.500000 -0.014344)
            (0.689737 -0.500000 -0.008430)
            (0.722909 -0.500000 -0.003870)
            (0.743181 -0.500000 -0.000987)
        ) 
    arc 0 1 (-5.607702 0.500000 5.656854) 
    arc 0 9 (-5.607702 0.500000 -5.656854) 
    arc 12 13 (-5.607702 -0.500000 5.656854) 
    arc 12 21 (-5.607702 -0.500000 -5.656854) 
); 

boundary 
( 
    inlet 
    { 
        type patch; 
        faces 
        ( 
            (1 0 12 13) 
            (0 9 21 12) 
        ); 
    } 

    outlet 
    { 
        type patch; 
        faces 
        ( 
            (11 8 20 23) 
            (8 3 15 20) 
        ); 
    } 

    topAndBottom 
    { 
        type patch; 
        faces 
        ( 
            (3 2 14 15) 
            (2 1 13 14) 
            (9 10 22 21) 
            (10 11 23 22) 
        ); 
    } 

    airfoil 
    { 
        type wall; 
        faces 
        ( 
            (5 4 16 17) 
            (7 5 17 19) 
            (4 6 18 16) 
            (6 7 19 18) 
        ); 
    } 
); 
 
mergePatchPairs 
( 
); 
 
// ************************************************************************* // 
