/*--------------------------------*- C++ -*----------------------------------*\ 
| =========                 |                                                 | 
| \\      /  F ield         | OpenFOAM: The Open Source CFD Toolbox           | 
|  \\    /   O peration     | Version:  3.0.x                                 | 
|   \\  /    A nd           | Web:      www.OpenFOAM.com                      | 
|    \\/     M anipulation  |                                                 | 
\*---------------------------------------------------------------------------*/ 
FoamFile                                                                        
{                                                                               
    version     2.0;                                                            
    format      ascii;                                                          
    class       dictionary;                                                     
    object      blockMeshDict;                                                  
}                                                                               
// * * * * * * * * * * * * * * * * * * * * * * * * * * * * * * * * * * * * * // 

convertToMeters 1.000000; 

// nx1= 10, nz=1
vertices 
( 
    (0.500000 0.500000 -2.000000)
    (0.500000 -0.500000 -2.000000)
    (-0.500000 -0.500000 -2.000000)
    (-0.500000 0.500000 -2.000000)
    (9.000000 10.000000 -2.000000)
    (9.000000 -10.000000 -2.000000)
    (-17.000000 -10.000000 -2.000000)
    (-17.000000 10.000000 -2.000000)
    (-0.500000 10.000000 -2.000000)
    (0.500000 10.000000 -2.000000)
    (9.000000 0.500000 -2.000000)
    (9.000000 -0.500000 -2.000000)
    (0.500000 -10.000000 -2.000000)
    (-0.500000 -10.000000 -2.000000)
    (-17.000000 -0.500000 -2.000000)
    (-17.000000 0.500000 -2.000000)
    (0.500000 0.500000 2.000000)
    (0.500000 -0.500000 2.000000)
    (-0.500000 -0.500000 2.000000)
    (-0.500000 0.500000 2.000000)
    (9.000000 10.000000 2.000000)
    (9.000000 -10.000000 2.000000)
    (-17.000000 -10.000000 2.000000)
    (-17.000000 10.000000 2.000000)
    (-0.500000 10.000000 2.000000)
    (0.500000 10.000000 2.000000)
    (9.000000 0.500000 2.000000)
    (9.000000 -0.500000 2.000000)
    (0.500000 -10.000000 2.000000)
    (-0.500000 -10.000000 2.000000)
    (-17.000000 -0.500000 2.000000)
    (-17.000000 0.500000 2.000000)
); 

blocks 
( 
hex ( 15 3 8 7  31 19 24 23)     (30 24 1) simpleGrading (0.062857 9.545455 1) 
hex ( 14  2 3 15   30 18 19 31)  (30 10 1) simpleGrading (0.062857 1.000000 1) 
hex ( 6 13 2 14   22 29 18 30)   (30 24 1) simpleGrading (0.062857 0.104762 1) 
hex ( 13 12  1 2  29 28 17 18 )  (10 24 1) simpleGrading (1.000000 0.104762 1) 
hex (  12 5 11 1   28 21 27 17)  (23 24 1) simpleGrading (8.636364 0.104762 1) 
hex ( 1 11 10  0   17 27 26 16)  (23 10 1) simpleGrading (8.636364 1.000000 1) 
hex ( 0 10 4 9    16 26 20 25 )  (23 24 1) simpleGrading (8.636364 9.545455 1) 
hex ( 3 0 9 8     19 16 25 24)  (10 24 1) simpleGrading (1.000000 9.545455 1) 
); 

edges 
( 
); 

patches 
( 
patch outlet 
        ( 
            (7  15 31 23) 
            (14 15 30 31) 
            (14  6 22 30) 
        ) 

symmetryPlane sym1 
        ( 
            (4 9 25 20) 
            (9 8 24 25) 
            (8 7 23 24) 
        ) 

symmetryPlane sym2 
        ( 
            (5  12 28 21)  
            (12 13 29 28)  
            (13 6  22 29)  
        ) 

patch inlet 
        ( 
            (4  10 26 20) 
            (10 11 27 26) 
            (11 5  21 27) 
        ) 

wall cylinder 
        ( 
            (0 1 17 16) 
            (1 2 18 17) 
            (2 3 19 18) 
            (3 0 16 19) 
        ) 


); 
 
mergePatchPairs 
( 
); 
 
// ************************************************************************* // 
