/*--------------------------------*- C++ -*----------------------------------*\ 
| =========                 |                                                 | 
| \\      /  F ield         | OpenFOAM: The Open Source CFD Toolbox           | 
|  \\    /   O peration     | Version:  1712                                 | 
|   \\  /    A nd           | Web:      www.OpenFOAM.com                      | 
|    \\/     M anipulation  |                                                 | 
\*---------------------------------------------------------------------------*/ 
FoamFile                                                                        
{                                                                               
    version     2.0;                                                            
    format      ascii;                                                          
    class       dictionary;                                                     
    object      blockMeshDict;                                                  
}                                                                               
// * * * * * * * * * * * * * * * * * * * * * * * * * * * * * * * * * * * * * // 

convertToMeters 1.000000; 

//stretch ratio=1.200000,dx_min=0.016000
// nx1= 96, ny=40, nz=19
vertices 
( 
    (-3.500000 -2.000000 -1.000000)
    (1.500000 -2.000000 -1.000000)
    (1.500000 2.000000 -1.000000)
    (-3.500000 2.000000 -1.000000)
    (-3.500000 -2.000000 0.039900)
    (1.500000 -2.000000 0.039900)
    (1.500000 2.000000 0.039900)
    (-3.500000 2.000000 0.039900)
); 

blocks 
( 
hex (0 1 2 3 4 5 6 7)   (96 40 19) 
simpleGrading 
( 
       (     
             (3.000000 20.000000 0.031169)
             (1.000000 62.000000 1.000000)
             (1.000000 14.000000 11.250000)
       )     
       (     
             (1.950000 17.000000 0.047291)
             (0.100000 6.000000 1.000000)
             (1.950000 17.000000 21.145833)
       )     
       (     
             (0.937500 13.000000 0.094349)
             (0.102400 6.000000 1.000000)
       )     
) 
); 

edges 
( 
); 

boundary 
( 
atmosphere 
        { 
            type patch;
            faces 
            ( 
              (4 5 6 7) 
            );
        } 

inlet 
        { 
            type patch;
            faces 
            ( 
              (1 2 6 5) 
            );
        } 

outlet 
        { 
            type patch;
            faces 
            ( 
              (0 4 7 3) 
            );
        } 

bottom 
        { 
            type symmetryPlane;
            faces 
            ( 
              (0 3 2 1) 
            );
        } 

side 
        { 
            type patch;
            faces 
            ( 
              (0 1 5 4) 
            );
        } 

midPlane 
        { 
            type patch;
            faces 
            ( 
              (3 7 6 2) 
            );
        } 

 );
 
mergePatchPairs 
( 
); 
 
// ************************************************************************* // 
