/*--------------------------------*- C++ -*----------------------------------*\ 
| =========                 |                                                 | 
| \\      /  F ield         | OpenFOAM: The Open Source CFD Toolbox           | 
|  \\    /   O peration     | Version:  1712                                 | 
|   \\  /    A nd           | Web:      www.OpenFOAM.com                      | 
|    \\/     M anipulation  |                                                 | 
\*---------------------------------------------------------------------------*/ 
FoamFile                                                                        
{                                                                               
    version     2.0;                                                            
    format      ascii;                                                          
    class       dictionary;                                                     
    object      blockMeshDict;                                                  
}                                                                               
// * * * * * * * * * * * * * * * * * * * * * * * * * * * * * * * * * * * * * // 

convertToMeters 1.000000; 

// nx1= 125, nz=25
vertices 
( 
    (-8.750000 -2.500000 -2.500000)
    (3.750000 -2.500000 -2.500000)
    (3.750000 2.500000 -2.500000)
    (-8.750000 2.500000 -2.500000)
    (-8.750000 -2.500000 0.099750)
    (3.750000 -2.500000 0.099750)
    (3.750000 2.500000 0.099750)
    (-8.750000 2.500000 0.099750)
); 

blocks 
( 
//up
hex (0 1 2 3 4 5 6 7)   (125 50 25) simpleGrading (1 1 1) 
); 

edges 
( 
); 

boundary 
( 
atmosphere 
        { 
            type patch;
            faces 
            ( 
              (4 5 6 7) 
            );
        } 

inlet 
        { 
            type patch;
            faces 
            ( 
              (1 2 6 5) 
            );
        } 

outlet 
        { 
            type patch;
            faces 
            ( 
              (0 4 7 3) 
            );
        } 

bottom 
        { 
            type symmetryPlane;
            faces 
            ( 
              (0 3 2 1) 
            );
        } 

side 
        { 
            type symmetryPlane;
            faces 
            ( 
              (0 1 5 4) 
            );
        } 

midPlane 
        { 
            type symmetryPlane;
            faces 
            ( 
              (3 7 6 2) 
            );
        } 

 );
 
mergePatchPairs 
( 
); 
 
// ************************************************************************* // 
